WIDTH=28;
DEPTH=148;
ADDRESS_RADIX=HEX;
DATA_RADIX=BIN;

CONTENT
BEGIN
 00 : 0000111110100000000000000000;
 01 : 1111000011011000000011110101;
 02 : 0000110111000011111000100101;
 03 : 1111010001111100001010100100;
 04 : 0000111110100000000000000000;
 05 : 1111000011100100000011111111;
 06 : 0000110110010111111000010010;
 07 : 1111010011011000001010111100;
 08 : 0000111110100000000000000000;
 09 : 1111000100001000000100011111;
 0A : 0000110100001111110111011010;
 0B : 1111010111111000001011111111;
 0C : 0000111110100000000000000000;
 0D : 1111000101001100000101010011;
 0E : 0000110000001011110110000010;
 0F : 1111100000010000001101011101;
 10 : 0000111110100000000000000000;
 11 : 1111000111000000000110011001;
 12 : 0000101001100111110100010101;
 13 : 1111101101001100001110111010;
 14 : 0000111110100000000000000000;
 15 : 1111001001101100000111110000;
 16 : 0000011111110111110010100011;
 17 : 1111111111000100001111101000;
 18 : 0000111110100000000000000000;
 19 : 1111001101101100001001010001;
 1A : 0000010010100011110001000101;
 1B : 0000010100100000001110110001;
 1C : 0000111110100000000000000000;
 1D : 1111010011001100001010111001;
 1E : 0000000001110111110000011000;
 1F : 0000101010001100001011100010;
 20 : 0000111110100000000000000000;
 21 : 1111011010011000001100011110;
 22 : 1111101110110111110000111110;
 23 : 0000111010010100000101101000;
 24 : 0000111110100000000000000000;
 25 : 1111100011011000001101111001;
 26 : 1111011011110011110011010010;
 27 : 0000111101111011111101110001;
 28 : 0000111110100000000000000000;
 29 : 1111101110001000001110111110;
 2A : 1111001011101111110111011101;
 2B : 0000101111110011110101111010;
 2C : 0000111110100000000000000000;
 2D : 1111111010011100001111100100;
 2E : 1111000010100011111101001110;
 2F : 0000010000100111110000111100;
 30 : 0000111110100000000000000000;
 31 : 0000000111101100001111100000;
 32 : 1111000011011000000011110101;
 33 : 1111101001011011110001011100;
 34 : 0000111110100000000000000000;
 35 : 0000010101010100001110101100;
 36 : 1111010000000000001010000001;
 37 : 1111001010000011111000001000;
 38 : 0000111110100000000000000000;
 39 : 0000100010010100001101000100;
 3A : 1111100111001000001110010110;
 3B : 1111000010011100000010101011;
 3C : 0000111110100000000000000000;
 3D : 0000101101110000001010101001;
 3E : 0000000100100100001111100101;
 3F : 1111011000111000001100001100;
 40 : 0000111110100000000000000000;
 41 : 0000110110110000000111100010;
 42 : 0000100001100000001101001100;
 43 : 0000000011111100001111100110;
 44 : 0000111110100000000000000000;
 45 : 0000111100100000000011111010;
 46 : 0000110110101100000111100011;
 47 : 0000101101011100001010101111;
 48 : 0000111110100000000000000000;
 49 : 0000111110100000000000000000;
 4A : 0000111110100000000000000000;
 4B : 0000111110100000000000000000;
 4C : 0000111110100000000000000000;
 4D : 0000111100100011111100000110;
 4E : 0000110110101111111000011101;
 4F : 0000101101011111110101010001;
 50 : 0000111110100000000000000000;
 51 : 0000110110110011111000011110;
 52 : 0000100001100011110010110100;
 53 : 0000000011111111110000011010;
 54 : 0000111110100000000000000000;
 55 : 0000101101110011110101010111;
 56 : 0000000100100111110000011011;
 57 : 1111011000111011110011110100;
 58 : 0000111110100000000000000000;
 59 : 0000100010010111110010111100;
 5A : 1111100111001011110001101010;
 5B : 1111000010011111111101010101;
 5C : 0000111110100000000000000000;
 5D : 0000010101010111110001010100;
 5E : 1111010000000011110101111111;
 5F : 1111001010000000000111111000;
 60 : 0000111110100000000000000000;
 61 : 0000000111101111110000100000;
 62 : 1111000011011011111100001011;
 63 : 1111101001011000001110100100;
 64 : 0000111110100000000000000000;
 65 : 1111111010011111110000011100;
 66 : 1111000010100000000010110010;
 67 : 0000010000100100001111000100;
 68 : 0000111110100000000000000000;
 69 : 1111101110001011110001000010;
 6A : 1111001011101100001000100011;
 6B : 0000101111110000001010000110;
 6C : 0000111110100000000000000000;
 6D : 1111100011011011110010000111;
 6E : 1111011011110000001100101110;
 6F : 0000111101111000000010001111;
 70 : 0000111110100000000000000000;
 71 : 1111011010011011110011100010;
 72 : 1111101110110100001111000010;
 73 : 0000111010010111111010011000;
 74 : 0000111110100000000000000000;
 75 : 1111010011001111110101000111;
 76 : 0000000001110100001111101000;
 77 : 0000101010001111110100011110;
 78 : 0000111110100000000000000000;
 79 : 1111001101101111110110101111;
 7A : 0000010010100000001110111011;
 7B : 0000010100100011110001001111;
 7C : 0000111110100000000000000000;
 7D : 1111001001101111111000010000;
 7E : 0000011111110100001101011101;
 7F : 1111111111000111110000011000;
 80 : 0000111110100000000000000000;
 81 : 1111000111000011111001100111;
 82 : 0000101001100100001011101011;
 83 : 1111101101001111110001000110;
 84 : 0000111110100000000000000000;
 85 : 1111000101001111111010101101;
 86 : 0000110000001000001001111110;
 87 : 1111100000010011110010100011;
 88 : 0000111110100000000000000000;
 89 : 1111000100001011111011100001;
 8A : 0000110100001100001000100110;
 8B : 1111010111111011110100000001;
 8C : 0000111110100000000000000000;
 8D : 1111000011100111111100000001;
 8E : 0000110110010100000111101110;
 8F : 1111010011011011110101000100;
 90 : 0000111110100000000000000000;
 91 : 1111000011011011111100001011;
 92 : 0000110111000000000111011011;
 93 : 1111010001111111110101011100;
END;
